*Heading
** Job name: RVE_VF_20_DIR_1_LAYERED Model name: RVE_VF_20_DIR_1_LAYERED
** Generated by: Abaqus/CAE 2020
*Preprint, echo=NO, model=NO, history=NO, contact=NO
**
** PARTS
**
*Part, name=RVE2DComposite
*Node
      1,  0.075000003, -0.0250000004
      2, 0.0352878943, -0.0136752538
      3, 0.0352878943, -0.00412793458
      4, -0.0297674593, -0.0136752538
      5,  0.075000003, 0.0250000004
      6, 0.0308373831, 0.00662485743
      7, 0.0308373831,   0.01637871
      8, -0.0297674593, -0.00412793458
      9, -0.0278772395, 0.00417563692
     10, -0.0715543181, 0.00417563692
     11, -0.075000003, -0.0250000004
     12, -0.0173641499, 0.00662485743
     13, -0.0173641499,   0.01637871
     14, -0.0715543181, 0.0135339815
     15, -0.0278772395, 0.0135339815
     16, -0.075000003, 0.0250000004
     17, -0.0705388263, -0.0250000004
     18,  -0.06606289, -0.0250000004
     19, -0.0615566187, -0.0250000004
     20, -0.0570281148, -0.0250000004
** ... 364 like lines cut
*Element, type=CPS4T
  1,  39,  40, 180, 170
  2,  40,  41, 181, 180
  3,  41,  42, 182, 181
  4,  42,  43, 183, 182
  5,  43,  44, 184, 183
  6,  44,  45, 185, 184
  7,  45,  46, 186, 185
  8,  46,   1,  47, 186
  9, 170, 180, 187,   2
 10, 180, 181, 188, 187
 11, 181, 182, 189, 188
 12, 182, 183, 190, 189
 13, 183, 184, 191, 190
 14, 184, 185, 192, 191
 15, 185, 186, 193, 192
 16, 186,  47,  48, 193
 17,   2, 187, 194, 142
 18, 187, 188, 195, 194
 19, 188, 189, 196, 195
 20, 189, 190, 197, 196
** ... 321 like lines cut
*Nset, nset=_PickedSet3, internal, generate
   1,  355,    1
*Elset, elset=_PickedSet3, internal, generate
   1,  277,    1
*Nset, nset=_PickedSet4, internal
   6,   7,  12,  13,  97,  98,  99, 100, 101, 102, 103, 104, 105, 106, 107, 108
 109, 110, 111, 112, 113, 114, 115, 116, 356, 357, 358, 359, 360, 361, 362, 363
 364,
*Elset, elset=_PickedSet4, internal, generate
 278,  297,    1
*Nset, nset=_PickedSet5, internal
   2,   3,   4,   8, 117, 118, 119, 120, 121, 122, 123, 124, 125, 126, 127, 128
 129, 130, 131, 132, 133, 134, 135, 136, 137, 138, 139, 140, 141, 142, 365, 366
 367, 368, 369, 370, 371, 372, 373, 374, 375, 376
*Elset, elset=_PickedSet5, internal, generate
 298,  323,    1
*Nset, nset=_PickedSet6, internal
   9,  10,  14,  15, 143, 144, 145, 146, 147, 148, 149, 150, 151, 152, 153, 154
 155, 156, 157, 158, 159, 160, 377, 378, 379, 380, 381, 382, 383, 384
*Elset, elset=_PickedSet6, internal, generate
 324,  341,    1
** Section: matrixSection
*Solid Section, elset=_PickedSet3, material=PEEK
,
** Section: fibreSection
*Solid Section, elset=_PickedSet4, material=CARBON
,
** Section: fibreSection
*Solid Section, elset=_PickedSet5, material=CARBON
,
** Section: fibreSection
*Solid Section, elset=_PickedSet6, material=CARBON
,
*End Part
**  
**
** ASSEMBLY
**
*Assembly, name=Assembly
**  
*Instance, name=RVE2DComposite, part=RVE2DComposite
*End Instance
**  
*End Assembly
** 
** MATERIALS
** 
*Material, name=CARBON
*Conductivity
 0.105,
*Density
 1.3e-09,
*Elastic
230000., 0.3
*Expansion
 -4.1e-07,
*Specific Heat
 7.77e+08,
*Material, name=PEEK
*Conductivity
 0.27,
*Density
 1.29e-09,
*Elastic
3720., 0.4
*Expansion
 4.7e-05,
*Specific Heat
 1.1e+09,

