*Heading
** Job name: RVE_CF_PEEK_23_020 Model name: Model-1
** Generated by: Abaqus/CAE 2020
*Preprint, echo=NO, model=NO, history=NO, contact=NO
**
** PARTS
**
*Part, name=Part-1
*End Part
**  
**
** ASSEMBLY
**
*Assembly, name=Assembly
**  
*Instance, name=Part-1-1, part=Part-1
*Node
      1, 0.0389387608,  0.053269919
      2, 0.0700000897, -0.0660371706
      3,  0.010826203, -0.0501597561
      4, 0.0321312435, -0.076304324
      5, -0.0188975595, -0.025872279
      6, -0.0211327914, 0.0158202983
      7, -0.089075841, -0.0129495775
      8, 0.0266080778, 0.0268073268
      9, 0.0609577484, -0.0474542081
     10, -0.0920418724, 0.0793878883
     11, -0.0426248871, -0.045748461
     12, 0.0758630186,  0.034866184
     13, 0.0218466353, -0.0225565378
     14, 0.0374332145, -0.0280184988
     15, -0.0576466769, -0.0540955923
     16, -0.0612127408, -0.0640202686
     17, 0.0650489852, 0.00892355386
     18, -0.0366020054, 0.0347212143
     19, -0.0163522195, 0.0698091388
     20, -0.0705327839, -0.0581391007
** ... 1125 like lines cut
*Element, type=CPS3T
  1,  348,  347,    1
  2,  610,  210,   94
  3,  682,  606,  135
  4,   16,  163,  261
  5,  658,   15,  164
  6,   63,  148,  152
  7,  301,  269,  144
  8,  430,  106,  341
  9,  433,  394,  101
 10,  343,   84,  141
 11,  220,   39,  131
 12,  345,  437,  438
 13,  448,  694,  344
 14,  343,  448,  344
 15,  335,  334,  434
 16,    4,  117,  290
 17,  423,  331,  114
 18,  296,  476,   72
 19,  512,  286,   65
 20,   32,  201,  118
** ... 530 like lines cut
*Element, type=CPS4T
 551,   26,  166,  444,  108
 552,  444,  348,    1,  108
 553,  176,  175,   81,  336
 554,  183,  182,  175,   24
 555,  435,  436,  335,  434
 556,  166,   21,  417,  444
 557,  204,  203,  283,   64
 558,   33,  204,  457,  456
 559,  266,  162,  229,   42
 560,  267,  266,   42,  615
 561,   96,  135,  134,  379
 562,  577,  556,  585,  667
 563,  164,  163,   16,  153
 564,   63,  282,  149,  148
 565,  233,  232,  500,   32
 566,  200,   93,  372,  496
 567,   87,  496,  372,  352
 568,  372,  371,   80,  352
 569,  353,  352,   80,  333
 570,   13,  144,  269,  268
** ... 847 like lines cut
*Nset, nset=_PickedSet103, internal, generate
    1,  1145,     1
*Elset, elset=_PickedSet103, internal, generate
    1,  1316,     1
*Nset, nset=_PickedSet104, internal
  55, 256, 257, 258
*Elset, elset=_PickedSet104, internal
 1417,
*Nset, nset=_PickedSet105, internal
  50, 253, 254, 255
*Elset, elset=_PickedSet105, internal
 1416,
*Nset, nset=_PickedSet106, internal
  56, 259, 260, 261
*Elset, elset=_PickedSet106, internal
 1415,
*Nset, nset=_PickedSet107, internal
  49, 250, 251, 252
*Elset, elset=_PickedSet107, internal
 1414,
*Nset, nset=_PickedSet108, internal
  57, 262, 263, 264
*Elset, elset=_PickedSet108, internal
 1413,
*Nset, nset=_PickedSet109, internal
  48, 247, 248, 249
*Elset, elset=_PickedSet109, internal
 1412,
*Nset, nset=_PickedSet110, internal
  58, 265, 266, 267
*Elset, elset=_PickedSet110, internal
 1411,
*Nset, nset=_PickedSet111, internal
  47, 244, 245, 246
*Elset, elset=_PickedSet111, internal
 1410,
*Nset, nset=_PickedSet112, internal
  59, 268, 269, 270
*Elset, elset=_PickedSet112, internal
 1409,
*Nset, nset=_PickedSet113, internal
  46, 241, 242, 243
*Elset, elset=_PickedSet113, internal
 1408,
*Nset, nset=_PickedSet114, internal
  60, 271, 272, 273
*Elset, elset=_PickedSet114, internal
 1407,
*Nset, nset=_PickedSet115, internal
  45, 238, 239, 240
*Elset, elset=_PickedSet115, internal
 1406,
*Nset, nset=_PickedSet116, internal
  61, 274, 275, 276
*Elset, elset=_PickedSet116, internal
 1405,
*Nset, nset=_PickedSet117, internal
  44, 235, 236, 237
*Elset, elset=_PickedSet117, internal
 1404,
*Nset, nset=_PickedSet118, internal
  62, 277, 278, 279
*Elset, elset=_PickedSet118, internal
 1403,
*Nset, nset=_PickedSet119, internal
  43, 232, 233, 234
*Elset, elset=_PickedSet119, internal
 1402,
*Nset, nset=_PickedSet120, internal
  63, 280, 281, 282
*Elset, elset=_PickedSet120, internal
 1401,
*Nset, nset=_PickedSet121, internal
  42, 229, 230, 231
*Elset, elset=_PickedSet121, internal
 1400,
*Nset, nset=_PickedSet122, internal
  64, 283, 284, 285
*Elset, elset=_PickedSet122, internal
 1399,
*Nset, nset=_PickedSet123, internal
  41, 226, 227, 228
*Elset, elset=_PickedSet123, internal
 1398,
*Nset, nset=_PickedSet124, internal
  65, 286, 287, 288
*Elset, elset=_PickedSet124, internal
 1397,
*Nset, nset=_PickedSet125, internal
  40, 223, 224, 225
*Elset, elset=_PickedSet125, internal
 1396,
*Nset, nset=_PickedSet126, internal
  66, 289, 290, 291
*Elset, elset=_PickedSet126, internal
 1395,
*Nset, nset=_PickedSet127, internal
  39, 220, 221, 222
*Elset, elset=_PickedSet127, internal
 1394,
*Nset, nset=_PickedSet128, internal
  67, 292, 293, 294
*Elset, elset=_PickedSet128, internal
 1393,
*Nset, nset=_PickedSet129, internal
  38, 217, 218, 219
*Elset, elset=_PickedSet129, internal
 1392,
*Nset, nset=_PickedSet130, internal
  68, 295, 296, 297
*Elset, elset=_PickedSet130, internal
 1391,
*Nset, nset=_PickedSet131, internal
  37, 214, 215, 216
*Elset, elset=_PickedSet131, internal
 1390,
*Nset, nset=_PickedSet132, internal
  69, 298, 299, 300
*Elset, elset=_PickedSet132, internal
 1389,
*Nset, nset=_PickedSet133, internal
  36, 211, 212, 213
*Elset, elset=_PickedSet133, internal
 1388,
*Nset, nset=_PickedSet134, internal
  70, 301, 302, 303
*Elset, elset=_PickedSet134, internal
 1387,
*Nset, nset=_PickedSet135, internal
  35, 208, 209, 210
*Elset, elset=_PickedSet135, internal
 1386,
*Nset, nset=_PickedSet136, internal
  71, 304, 305, 306
*Elset, elset=_PickedSet136, internal
 1385,
*Nset, nset=_PickedSet137, internal
  34, 205, 206, 207
*Elset, elset=_PickedSet137, internal
 1384,
*Nset, nset=_PickedSet138, internal
  72, 307, 308, 309
*Elset, elset=_PickedSet138, internal
 1383,
*Nset, nset=_PickedSet139, internal
  33, 202, 203, 204
*Elset, elset=_PickedSet139, internal
 1382,
*Nset, nset=_PickedSet140, internal
  73, 310, 311, 312
*Elset, elset=_PickedSet140, internal
 1381,
*Nset, nset=_PickedSet141, internal
  32, 199, 200, 201
*Elset, elset=_PickedSet141, internal
 1380,
*Nset, nset=_PickedSet142, internal
  74, 313, 314, 315
*Elset, elset=_PickedSet142, internal
 1379,
*Nset, nset=_PickedSet143, internal
  31, 196, 197, 198
*Elset, elset=_PickedSet143, internal
 1378,
*Nset, nset=_PickedSet144, internal
  75, 316, 317, 318
*Elset, elset=_PickedSet144, internal
 1377,
*Nset, nset=_PickedSet145, internal
  30, 193, 194, 195
*Elset, elset=_PickedSet145, internal
 1376,
*Nset, nset=_PickedSet146, internal
  76, 319, 320, 321
*Elset, elset=_PickedSet146, internal
 1375,
*Nset, nset=_PickedSet147, internal
  29, 190, 191, 192
*Elset, elset=_PickedSet147, internal
 1374,
*Nset, nset=_PickedSet148, internal
  77, 322, 323, 324
*Elset, elset=_PickedSet148, internal
 1373,
*Nset, nset=_PickedSet149, internal
  28, 187, 188, 189
*Elset, elset=_PickedSet149, internal
 1372,
*Nset, nset=_PickedSet150, internal
  78, 325, 326, 327
*Elset, elset=_PickedSet150, internal
 1371,
*Nset, nset=_PickedSet151, internal
  27, 184, 185, 186
*Elset, elset=_PickedSet151, internal
 1370,
*Nset, nset=_PickedSet152, internal
  79, 328, 329, 330
*Elset, elset=_PickedSet152, internal
 1369,
*Nset, nset=_PickedSet153, internal
  26, 181, 182, 183
*Elset, elset=_PickedSet153, internal
 1368,
*Nset, nset=_PickedSet154, internal
  80, 331, 332, 333
*Elset, elset=_PickedSet154, internal
 1367,
*Nset, nset=_PickedSet155, internal
  25, 178, 179, 180
*Elset, elset=_PickedSet155, internal
 1366,
*Nset, nset=_PickedSet156, internal
  81, 334, 335, 336
*Elset, elset=_PickedSet156, internal
 1365,
*Nset, nset=_PickedSet157, internal
  24, 175, 176, 177
*Elset, elset=_PickedSet157, internal
 1364,
*Nset, nset=_PickedSet158, internal
  82, 337, 338, 339
*Elset, elset=_PickedSet158, internal
 1363,
*Nset, nset=_PickedSet159, internal
  23, 172, 173, 174
*Elset, elset=_PickedSet159, internal
 1362,
*Nset, nset=_PickedSet160, internal
  83, 340, 341, 342
*Elset, elset=_PickedSet160, internal
 1361,
*Nset, nset=_PickedSet161, internal
  22, 169, 170, 171
*Elset, elset=_PickedSet161, internal
 1360,
*Nset, nset=_PickedSet162, internal
  84, 343, 344, 345
*Elset, elset=_PickedSet162, internal
 1359,
*Nset, nset=_PickedSet163, internal
  21, 166, 167, 168
*Elset, elset=_PickedSet163, internal
 1358,
*Nset, nset=_PickedSet164, internal
  85, 346, 347, 348
*Elset, elset=_PickedSet164, internal
 1357,
*Nset, nset=_PickedSet165, internal
  20, 163, 164, 165
*Elset, elset=_PickedSet165, internal
 1356,
*Nset, nset=_PickedSet166, internal
  86, 349, 350, 351
*Elset, elset=_PickedSet166, internal
 1355,
*Nset, nset=_PickedSet167, internal
  19, 160, 161, 162
*Elset, elset=_PickedSet167, internal
 1354,
*Nset, nset=_PickedSet168, internal
  87, 352, 353, 354
*Elset, elset=_PickedSet168, internal
 1353,
*Nset, nset=_PickedSet169, internal
  18, 157, 158, 159
*Elset, elset=_PickedSet169, internal
 1352,
*Nset, nset=_PickedSet170, internal
  88, 355, 356, 357
*Elset, elset=_PickedSet170, internal
 1351,
*Nset, nset=_PickedSet171, internal
  17, 154, 155, 156
*Elset, elset=_PickedSet171, internal
 1350,
*Nset, nset=_PickedSet172, internal
  89, 358, 359, 360
*Elset, elset=_PickedSet172, internal
 1349,
*Nset, nset=_PickedSet173, internal
  16, 151, 152, 153
*Elset, elset=_PickedSet173, internal
 1348,
*Nset, nset=_PickedSet174, internal
  90, 361, 362, 363
*Elset, elset=_PickedSet174, internal
 1347,
*Nset, nset=_PickedSet175, internal
  15, 148, 149, 150
*Elset, elset=_PickedSet175, internal
 1346,
*Nset, nset=_PickedSet176, internal
  91, 364, 365, 366
*Elset, elset=_PickedSet176, internal
 1345,
*Nset, nset=_PickedSet177, internal
  14, 145, 146, 147
*Elset, elset=_PickedSet177, internal
 1344,
*Nset, nset=_PickedSet178, internal
  92, 367, 368, 369
*Elset, elset=_PickedSet178, internal
 1343,
*Nset, nset=_PickedSet179, internal
  13, 142, 143, 144
*Elset, elset=_PickedSet179, internal
 1342,
*Nset, nset=_PickedSet180, internal
  93, 370, 371, 372
*Elset, elset=_PickedSet180, internal
 1341,
*Nset, nset=_PickedSet181, internal
  12, 139, 140, 141
*Elset, elset=_PickedSet181, internal
 1340,
*Nset, nset=_PickedSet182, internal
  94, 373, 374, 375
*Elset, elset=_PickedSet182, internal
 1339,
*Nset, nset=_PickedSet183, internal
  11, 136, 137, 138
*Elset, elset=_PickedSet183, internal
 1338,
*Nset, nset=_PickedSet184, internal
  95, 376, 377, 378
*Elset, elset=_PickedSet184, internal
 1337,
*Nset, nset=_PickedSet185, internal
  10, 133, 134, 135
*Elset, elset=_PickedSet185, internal
 1336,
*Nset, nset=_PickedSet186, internal
  96, 379, 380, 381
*Elset, elset=_PickedSet186, internal
 1335,
*Nset, nset=_PickedSet187, internal
   9, 130, 131, 132
*Elset, elset=_PickedSet187, internal
 1334,
*Nset, nset=_PickedSet188, internal
  97, 382, 383, 384
*Elset, elset=_PickedSet188, internal
 1333,
*Nset, nset=_PickedSet189, internal
   8, 127, 128, 129
*Elset, elset=_PickedSet189, internal
 1332,
*Nset, nset=_PickedSet190, internal
  98, 385, 386, 387
*Elset, elset=_PickedSet190, internal
 1331,
*Nset, nset=_PickedSet191, internal
   7, 124, 125, 126
*Elset, elset=_PickedSet191, internal
 1330,
*Nset, nset=_PickedSet192, internal
  99, 388, 389, 390
*Elset, elset=_PickedSet192, internal
 1329,
*Nset, nset=_PickedSet193, internal
   6, 121, 122, 123
*Elset, elset=_PickedSet193, internal
 1328,
*Nset, nset=_PickedSet194, internal
 100, 391, 392, 393
*Elset, elset=_PickedSet194, internal
 1327,
*Nset, nset=_PickedSet195, internal
   5, 118, 119, 120
*Elset, elset=_PickedSet195, internal
 1326,
*Nset, nset=_PickedSet196, internal
 101, 394, 395, 396
*Elset, elset=_PickedSet196, internal
 1325,
*Nset, nset=_PickedSet197, internal
   4, 115, 116, 117
*Elset, elset=_PickedSet197, internal
 1324,
*Nset, nset=_PickedSet198, internal
 102, 397, 398, 399
*Elset, elset=_PickedSet198, internal
 1323,
*Nset, nset=_PickedSet199, internal
   3, 112, 113, 114
*Elset, elset=_PickedSet199, internal
 1322,
*Nset, nset=_PickedSet200, internal
 103, 400, 401, 402
*Elset, elset=_PickedSet200, internal
 1321,
*Nset, nset=_PickedSet201, internal
   2, 109, 110, 111
*Elset, elset=_PickedSet201, internal
 1320,
*Nset, nset=_PickedSet202, internal
 104, 403, 404, 405
*Elset, elset=_PickedSet202, internal
 1319,
*Nset, nset=_PickedSet203, internal
   1, 106, 107, 108
*Elset, elset=_PickedSet203, internal
 1318,
*Nset, nset=_PickedSet204, internal
 105, 406, 407, 408
*Elset, elset=_PickedSet204, internal
 1317,
** Section: Matrix
*Solid Section, elset=_PickedSet103, material=PEEK
,
** Section: Inclusion
*Solid Section, elset=_PickedSet204, material=CARBON
,
** Section: Inclusion
*Solid Section, elset=_PickedSet203, material=CARBON
,
** Section: Inclusion
*Solid Section, elset=_PickedSet202, material=CARBON
,
** Section: Inclusion
*Solid Section, elset=_PickedSet201, material=CARBON
,
** Section: Inclusion
*Solid Section, elset=_PickedSet200, material=CARBON
,
** Section: Inclusion
*Solid Section, elset=_PickedSet199, material=CARBON
,
** Section: Inclusion
*Solid Section, elset=_PickedSet198, material=CARBON
,
** Section: Inclusion
*Solid Section, elset=_PickedSet197, material=CARBON
,
** Section: Inclusion
*Solid Section, elset=_PickedSet196, material=CARBON
,
** Section: Inclusion
*Solid Section, elset=_PickedSet195, material=CARBON
,
** Section: Inclusion
*Solid Section, elset=_PickedSet194, material=CARBON
,
** Section: Inclusion
*Solid Section, elset=_PickedSet193, material=CARBON
,
** Section: Inclusion
*Solid Section, elset=_PickedSet192, material=CARBON
,
** Section: Inclusion
*Solid Section, elset=_PickedSet191, material=CARBON
,
** Section: Inclusion
*Solid Section, elset=_PickedSet190, material=CARBON
,
** Section: Inclusion
*Solid Section, elset=_PickedSet189, material=CARBON
,
** Section: Inclusion
*Solid Section, elset=_PickedSet188, material=CARBON
,
** Section: Inclusion
*Solid Section, elset=_PickedSet187, material=CARBON
,
** Section: Inclusion
*Solid Section, elset=_PickedSet186, material=CARBON
,
** Section: Inclusion
*Solid Section, elset=_PickedSet185, material=CARBON
,
** Section: Inclusion
*Solid Section, elset=_PickedSet184, material=CARBON
,
** Section: Inclusion
*Solid Section, elset=_PickedSet183, material=CARBON
,
** Section: Inclusion
*Solid Section, elset=_PickedSet182, material=CARBON
,
** Section: Inclusion
*Solid Section, elset=_PickedSet181, material=CARBON
,
** Section: Inclusion
*Solid Section, elset=_PickedSet180, material=CARBON
,
** Section: Inclusion
*Solid Section, elset=_PickedSet179, material=CARBON
,
** Section: Inclusion
*Solid Section, elset=_PickedSet178, material=CARBON
,
** Section: Inclusion
*Solid Section, elset=_PickedSet177, material=CARBON
,
** Section: Inclusion
*Solid Section, elset=_PickedSet176, material=CARBON
,
** Section: Inclusion
*Solid Section, elset=_PickedSet175, material=CARBON
,
** Section: Inclusion
*Solid Section, elset=_PickedSet174, material=CARBON
,
** Section: Inclusion
*Solid Section, elset=_PickedSet173, material=CARBON
,
** Section: Inclusion
*Solid Section, elset=_PickedSet172, material=CARBON
,
** Section: Inclusion
*Solid Section, elset=_PickedSet171, material=CARBON
,
** Section: Inclusion
*Solid Section, elset=_PickedSet170, material=CARBON
,
** Section: Inclusion
*Solid Section, elset=_PickedSet169, material=CARBON
,
** Section: Inclusion
*Solid Section, elset=_PickedSet168, material=CARBON
,
** Section: Inclusion
*Solid Section, elset=_PickedSet167, material=CARBON
,
** Section: Inclusion
*Solid Section, elset=_PickedSet166, material=CARBON
,
** Section: Inclusion
*Solid Section, elset=_PickedSet165, material=CARBON
,
** Section: Inclusion
*Solid Section, elset=_PickedSet164, material=CARBON
,
** Section: Inclusion
*Solid Section, elset=_PickedSet163, material=CARBON
,
** Section: Inclusion
*Solid Section, elset=_PickedSet162, material=CARBON
,
** Section: Inclusion
*Solid Section, elset=_PickedSet161, material=CARBON
,
** Section: Inclusion
*Solid Section, elset=_PickedSet160, material=CARBON
,
** Section: Inclusion
*Solid Section, elset=_PickedSet159, material=CARBON
,
** Section: Inclusion
*Solid Section, elset=_PickedSet158, material=CARBON
,
** Section: Inclusion
*Solid Section, elset=_PickedSet157, material=CARBON
,
** Section: Inclusion
*Solid Section, elset=_PickedSet156, material=CARBON
,
** Section: Inclusion
*Solid Section, elset=_PickedSet155, material=CARBON
,
** Section: Inclusion
*Solid Section, elset=_PickedSet154, material=CARBON
,
** Section: Inclusion
*Solid Section, elset=_PickedSet153, material=CARBON
,
** Section: Inclusion
*Solid Section, elset=_PickedSet152, material=CARBON
,
** Section: Inclusion
*Solid Section, elset=_PickedSet151, material=CARBON
,
** Section: Inclusion
*Solid Section, elset=_PickedSet150, material=CARBON
,
** Section: Inclusion
*Solid Section, elset=_PickedSet149, material=CARBON
,
** Section: Inclusion
*Solid Section, elset=_PickedSet148, material=CARBON
,
** Section: Inclusion
*Solid Section, elset=_PickedSet147, material=CARBON
,
** Section: Inclusion
*Solid Section, elset=_PickedSet146, material=CARBON
,
** Section: Inclusion
*Solid Section, elset=_PickedSet145, material=CARBON
,
** Section: Inclusion
*Solid Section, elset=_PickedSet144, material=CARBON
,
** Section: Inclusion
*Solid Section, elset=_PickedSet143, material=CARBON
,
** Section: Inclusion
*Solid Section, elset=_PickedSet142, material=CARBON
,
** Section: Inclusion
*Solid Section, elset=_PickedSet141, material=CARBON
,
** Section: Inclusion
*Solid Section, elset=_PickedSet140, material=CARBON
,
** Section: Inclusion
*Solid Section, elset=_PickedSet139, material=CARBON
,
** Section: Inclusion
*Solid Section, elset=_PickedSet138, material=CARBON
,
** Section: Inclusion
*Solid Section, elset=_PickedSet137, material=CARBON
,
** Section: Inclusion
*Solid Section, elset=_PickedSet136, material=CARBON
,
** Section: Inclusion
*Solid Section, elset=_PickedSet135, material=CARBON
,
** Section: Inclusion
*Solid Section, elset=_PickedSet134, material=CARBON
,
** Section: Inclusion
*Solid Section, elset=_PickedSet133, material=CARBON
,
** Section: Inclusion
*Solid Section, elset=_PickedSet132, material=CARBON
,
** Section: Inclusion
*Solid Section, elset=_PickedSet131, material=CARBON
,
** Section: Inclusion
*Solid Section, elset=_PickedSet130, material=CARBON
,
** Section: Inclusion
*Solid Section, elset=_PickedSet129, material=CARBON
,
** Section: Inclusion
*Solid Section, elset=_PickedSet128, material=CARBON
,
** Section: Inclusion
*Solid Section, elset=_PickedSet127, material=CARBON
,
** Section: Inclusion
*Solid Section, elset=_PickedSet126, material=CARBON
,
** Section: Inclusion
*Solid Section, elset=_PickedSet125, material=CARBON
,
** Section: Inclusion
*Solid Section, elset=_PickedSet124, material=CARBON
,
** Section: Inclusion
*Solid Section, elset=_PickedSet123, material=CARBON
,
** Section: Inclusion
*Solid Section, elset=_PickedSet122, material=CARBON
,
** Section: Inclusion
*Solid Section, elset=_PickedSet121, material=CARBON
,
** Section: Inclusion
*Solid Section, elset=_PickedSet120, material=CARBON
,
** Section: Inclusion
*Solid Section, elset=_PickedSet119, material=CARBON
,
** Section: Inclusion
*Solid Section, elset=_PickedSet118, material=CARBON
,
** Section: Inclusion
*Solid Section, elset=_PickedSet117, material=CARBON
,
** Section: Inclusion
*Solid Section, elset=_PickedSet116, material=CARBON
,
** Section: Inclusion
*Solid Section, elset=_PickedSet115, material=CARBON
,
** Section: Inclusion
*Solid Section, elset=_PickedSet114, material=CARBON
,
** Section: Inclusion
*Solid Section, elset=_PickedSet113, material=CARBON
,
** Section: Inclusion
*Solid Section, elset=_PickedSet112, material=CARBON
,
** Section: Inclusion
*Solid Section, elset=_PickedSet111, material=CARBON
,
** Section: Inclusion
*Solid Section, elset=_PickedSet110, material=CARBON
,
** Section: Inclusion
*Solid Section, elset=_PickedSet109, material=CARBON
,
** Section: Inclusion
*Solid Section, elset=_PickedSet108, material=CARBON
,
** Section: Inclusion
*Solid Section, elset=_PickedSet107, material=CARBON
,
** Section: Inclusion
*Solid Section, elset=_PickedSet106, material=CARBON
,
** Section: Inclusion
*Solid Section, elset=_PickedSet105, material=CARBON
,
** Section: Inclusion
*Solid Section, elset=_PickedSet104, material=CARBON
,
*End Instance
**  
*Nset, nset=BottomEdge, instance=Part-1-1
 53, 54
*Elset, elset=BottomEdge, instance=Part-1-1
 225,
*Nset, nset=TopEdge, instance=Part-1-1
 52, 53
*Elset, elset=TopEdge, instance=Part-1-1
 124,
*End Assembly
** 
** MATERIALS
** 
*Material, name=CARBON
*Elastic
1000., 0.35
*Material, name=PEEK
*Elastic
100., 0.47
