*Heading
** Job name: RVE_CF_PEEK_23_020 Model name: Model-1
** Generated by: Abaqus/CAE 2020
*Preprint, echo=NO, model=NO, history=NO, contact=NO
**
** PARTS
**
*Part, name=Part-1
*End Part
**  
**
** ASSEMBLY
**
*Assembly, name=Assembly
**  
*Instance, name=Part-1-1, part=Part-1
*Node
      1, 0.0389680117, -0.0449207276
      2,  0.053556364, -0.0241747145
      3, 0.0273638573, -0.0255593676
      4, 0.0495720543, -0.0453676693
      5, 0.0442034155, -0.00676120026
      6, 0.0318894424, -0.0585850179
      7, 0.0698320791, -0.0418025367
      8, 0.0683227777, -0.0216325484
      9, 0.0115395207, -0.0416485257
     10, 0.0173133984, -0.0596330762
     11,  0.050603386, -0.0651324689
     12, 0.0790027231,   -0.0250907
     13, 0.0423090309, 0.00775666535
     14, 0.00868176389, -0.0269503742
     15, 0.0387449637, 0.0180082992
     16, 0.0110038454, 0.00654208893
     17, 0.00398129085, -0.0627880991
     18,  0.038507849, -0.0766801462
     19, 0.0670935363, -0.0696484968
     20, 0.0816143155, -0.0464387909
** ... 6979 like lines cut
*Element, type=CPS4T
   1, 2031, 1693, 2032, 3290
   2, 2032, 2033, 3291, 3290
   3, 2033, 1694, 2034, 3291
   4, 2034, 1695, 1696, 3291
   5, 3291, 1696, 2035, 3290
   6, 2035,    1,  667, 3290
   7,  667,  666, 2031, 3290
   8, 2036, 1694, 2033, 3292
   9, 2033, 2032, 3293, 3292
  10, 2032, 1693, 2037, 3293
  11, 2037, 2038, 3295, 3293
  12, 2038, 1697, 2039, 3295
  13, 3293, 3295, 3294, 3292
  14, 3295, 2039, 2040, 3294
  15, 2040, 1633, 1632, 3294
  16, 3294, 1632, 1631, 3292
  17, 1631, 1630, 2036, 3292
  18, 1629, 1628, 2041, 3298
  19, 3298, 2041, 2042, 3297
  20, 3297, 2042, 1698, 3296
** ... 6916 like lines cut
*Nset, nset=_PickedSet103, internal, generate
    1,  4506,     1
*Elset, elset=_PickedSet103, internal, generate
    1,  3760,     1
*Nset, nset=_PickedSet104, internal
   38,  936,  937,  938,  939,  940,  941,  942,  943,  944,  945,  946,  947,  948,  949,  950
 6979, 6980, 6981, 6982, 6983, 6984, 6985, 6986, 6987, 6988, 6989, 6990, 6991, 6992, 6993, 6994
 6995, 6996, 6997, 6998, 6999
*Elset, elset=_PickedSet104, internal, generate
 6909,  6936,     1
*Nset, nset=_PickedSet105, internal
    4,  803,  804,  805,  806,  807,  808,  809,  810,  811,  812,  813,  814,  815, 6961, 6962
 6963, 6964, 6965, 6966, 6967, 6968, 6969, 6970, 6971, 6972, 6973, 6974, 6975, 6976, 6977, 6978
*Elset, elset=_PickedSet105, internal, generate
 6885,  6908,     1
*Nset, nset=_PickedSet106, internal
   11,  951,  952,  953,  954,  955,  956,  957,  958,  959,  960,  961,  962,  963,  964,  965
 6933, 6934, 6935, 6936, 6937, 6938, 6939, 6940, 6941, 6942, 6943, 6944, 6945, 6946, 6947, 6948
 6949, 6950, 6951, 6952, 6953, 6954, 6955, 6956, 6957, 6958, 6959, 6960
*Elset, elset=_PickedSet106, internal, generate
 6850,  6884,     1
*Nset, nset=_PickedSet107, internal
   85,  788,  789,  790,  791,  792,  793,  794,  795,  796,  797,  798,  799,  800,  801,  802
 6908, 6909, 6910, 6911, 6912, 6913, 6914, 6915, 6916, 6917, 6918, 6919, 6920, 6921, 6922, 6923
 6924, 6925, 6926, 6927, 6928, 6929, 6930, 6931, 6932
*Elset, elset=_PickedSet107, internal, generate
 6818,  6849,     1
*Nset, nset=_PickedSet108, internal
   88,  966,  967,  968,  969,  970,  971,  972,  973,  974,  975,  976,  977,  978, 6879, 6880
 6881, 6882, 6883, 6884, 6885, 6886, 6887, 6888, 6889, 6890, 6891, 6892, 6893, 6894, 6895, 6896
 6897, 6898, 6899, 6900, 6901, 6902, 6903, 6904, 6905, 6906, 6907
*Elset, elset=_PickedSet108, internal, generate
 6783,  6817,     1
*Nset, nset=_PickedSet109, internal
   18,  773,  774,  775,  776,  777,  778,  779,  780,  781,  782,  783,  784,  785,  786,  787
 6858, 6859, 6860, 6861, 6862, 6863, 6864, 6865, 6866, 6867, 6868, 6869, 6870, 6871, 6872, 6873
 6874, 6875, 6876, 6877, 6878
*Elset, elset=_PickedSet109, internal, generate
 6755,  6782,     1
*Nset, nset=_PickedSet110, internal
   95,  979,  980,  981,  982,  983,  984,  985,  986,  987,  988,  989,  990,  991,  992,  993
  994,  995,  996,  997, 6810, 6811, 6812, 6813, 6814, 6815, 6816, 6817, 6818, 6819, 6820, 6821
 6822, 6823, 6824, 6825, 6826, 6827, 6828, 6829, 6830, 6831, 6832, 6833, 6834, 6835, 6836, 6837
 6838, 6839, 6840, 6841, 6842, 6843, 6844, 6845, 6846, 6847, 6848, 6849, 6850, 6851, 6852, 6853
 6854, 6855, 6856, 6857
*Elset, elset=_PickedSet110, internal, generate
 6698,  6754,     1
*Nset, nset=_PickedSet111, internal
   91,  762,  763,  764,  765,  766,  767,  768,  769,  770,  771,  772, 6792, 6793, 6794, 6795
 6796, 6797, 6798, 6799, 6800, 6801, 6802, 6803, 6804, 6805, 6806, 6807, 6808, 6809
*Elset, elset=_PickedSet111, internal, generate
 6675,  6697,     1
*Nset, nset=_PickedSet112, internal
    7,  998,  999, 1000, 1001, 1002, 1003, 1004, 1005, 1006, 1007, 1008, 1009, 1010, 1011, 1012
 1013, 1014, 6764, 6765, 6766, 6767, 6768, 6769, 6770, 6771, 6772, 6773, 6774, 6775, 6776, 6777
 6778, 6779, 6780, 6781, 6782, 6783, 6784, 6785, 6786, 6787, 6788, 6789, 6790, 6791
*Elset, elset=_PickedSet112, internal, generate
 6639,  6674,     1
*Nset, nset=_PickedSet113, internal
   90,  747,  748,  749,  750,  751,  752,  753,  754,  755,  756,  757,  758,  759,  760,  761
 6739, 6740, 6741, 6742, 6743, 6744, 6745, 6746, 6747, 6748, 6749, 6750, 6751, 6752, 6753, 6754
 6755, 6756, 6757, 6758, 6759, 6760, 6761, 6762, 6763
*Elset, elset=_PickedSet113, internal, generate
 6607,  6638,     1
*Nset, nset=_PickedSet114, internal
   48, 1015, 1016, 1017, 1018, 1019, 1020, 1021, 1022, 1023, 1024, 1025, 1026, 1027, 1028, 1029
 1030, 1031, 6706, 6707, 6708, 6709, 6710, 6711, 6712, 6713, 6714, 6715, 6716, 6717, 6718, 6719
 6720, 6721, 6722, 6723, 6724, 6725, 6726, 6727, 6728, 6729, 6730, 6731, 6732, 6733, 6734, 6735
 6736, 6737, 6738
*Elset, elset=_PickedSet114, internal, generate
 6566,  6606,     1
*Nset, nset=_PickedSet115, internal
   16,  734,  735,  736,  737,  738,  739,  740,  741,  742,  743,  744,  745,  746, 6684, 6685
 6686, 6687, 6688, 6689, 6690, 6691, 6692, 6693, 6694, 6695, 6696, 6697, 6698, 6699, 6700, 6701
 6702, 6703, 6704, 6705
*Elset, elset=_PickedSet115, internal, generate
 6538,  6565,     1
*Nset, nset=_PickedSet116, internal
   25, 1032, 1033, 1034, 1035, 1036, 1037, 1038, 1039, 1040, 1041, 1042, 1043, 1044, 6661, 6662
 6663, 6664, 6665, 6666, 6667, 6668, 6669, 6670, 6671, 6672, 6673, 6674, 6675, 6676, 6677, 6678
 6679, 6680, 6681, 6682, 6683
*Elset, elset=_PickedSet116, internal, generate
 6509,  6537,     1
*Nset, nset=_PickedSet117, internal
   94,  719,  720,  721,  722,  723,  724,  725,  726,  727,  728,  729,  730,  731,  732,  733
 6637, 6638, 6639, 6640, 6641, 6642, 6643, 6644, 6645, 6646, 6647, 6648, 6649, 6650, 6651, 6652
 6653, 6654, 6655, 6656, 6657, 6658, 6659, 6660
*Elset, elset=_PickedSet117, internal, generate
 6478,  6508,     1
*Nset, nset=_PickedSet118, internal
   67, 1045, 1046, 1047, 1048, 1049, 1050, 1051, 1052, 1053, 1054, 1055, 1056, 1057, 6614, 6615
 6616, 6617, 6618, 6619, 6620, 6621, 6622, 6623, 6624, 6625, 6626, 6627, 6628, 6629, 6630, 6631
 6632, 6633, 6634, 6635, 6636
*Elset, elset=_PickedSet118, internal, generate
 6449,  6477,     1
*Nset, nset=_PickedSet119, internal
   34,  700,  701,  702,  703,  704,  705,  706,  707,  708,  709,  710,  711,  712,  713,  714
  715,  716,  717,  718, 6570, 6571, 6572, 6573, 6574, 6575, 6576, 6577, 6578, 6579, 6580, 6581
 6582, 6583, 6584, 6585, 6586, 6587, 6588, 6589, 6590, 6591, 6592, 6593, 6594, 6595, 6596, 6597
 6598, 6599, 6600, 6601, 6602, 6603, 6604, 6605, 6606, 6607, 6608, 6609, 6610, 6611, 6612, 6613
*Elset, elset=_PickedSet119, internal, generate
 6396,  6448,     1
*Nset, nset=_PickedSet120, internal
   44, 1058, 1059, 1060, 1061, 1062, 1063, 1064, 1065, 1066, 1067, 1068, 1069, 1070, 6550, 6551
 6552, 6553, 6554, 6555, 6556, 6557, 6558, 6559, 6560, 6561, 6562, 6563, 6564, 6565, 6566, 6567
 6568, 6569
*Elset, elset=_PickedSet120, internal, generate
 6370,  6395,     1
*Nset, nset=_PickedSet121, internal
   55,  685,  686,  687,  688,  689,  690,  691,  692,  693,  694,  695,  696,  697,  698,  699
 6526, 6527, 6528, 6529, 6530, 6531, 6532, 6533, 6534, 6535, 6536, 6537, 6538, 6539, 6540, 6541
 6542, 6543, 6544, 6545, 6546, 6547, 6548, 6549
*Elset, elset=_PickedSet121, internal, generate
 6339,  6369,     1
*Nset, nset=_PickedSet122, internal
   58, 1071, 1072, 1073, 1074, 1075, 1076, 1077, 1078, 1079, 1080, 1081, 1082, 1083, 1084, 1085
 6505, 6506, 6507, 6508, 6509, 6510, 6511, 6512, 6513, 6514, 6515, 6516, 6517, 6518, 6519, 6520
 6521, 6522, 6523, 6524, 6525
*Elset, elset=_PickedSet122, internal, generate
 6311,  6338,     1
*Nset, nset=_PickedSet123, internal
   59,  668,  669,  670,  671,  672,  673,  674,  675,  676,  677,  678,  679,  680,  681,  682
  683,  684, 6481, 6482, 6483, 6484, 6485, 6486, 6487, 6488, 6489, 6490, 6491, 6492, 6493, 6494
 6495, 6496, 6497, 6498, 6499, 6500, 6501, 6502, 6503, 6504
*Elset, elset=_PickedSet123, internal, generate
 6279,  6310,     1
*Nset, nset=_PickedSet124, internal
   77, 1086, 1087, 1088, 1089, 1090, 1091, 1092, 1093, 1094, 1095, 1096, 1097, 1098, 6463, 6464
 6465, 6466, 6467, 6468, 6469, 6470, 6471, 6472, 6473, 6474, 6475, 6476, 6477, 6478, 6479, 6480
*Elset, elset=_PickedSet124, internal, generate
 6255,  6278,     1
*Nset, nset=_PickedSet125, internal
    1,  657,  658,  659,  660,  661,  662,  663,  664,  665,  666,  667, 6445, 6446, 6447, 6448
 6449, 6450, 6451, 6452, 6453, 6454, 6455, 6456, 6457, 6458, 6459, 6460, 6461, 6462
*Elset, elset=_PickedSet125, internal, generate
 6232,  6254,     1
*Nset, nset=_PickedSet126, internal
   64, 1099, 1100, 1101, 1102, 1103, 1104, 1105, 1106, 1107, 1108, 1109, 1110, 1111, 1112, 1113
 1114, 1115, 6415, 6416, 6417, 6418, 6419, 6420, 6421, 6422, 6423, 6424, 6425, 6426, 6427, 6428
 6429, 6430, 6431, 6432, 6433, 6434, 6435, 6436, 6437, 6438, 6439, 6440, 6441, 6442, 6443, 6444
*Elset, elset=_PickedSet126, internal, generate
 6194,  6231,     1
*Nset, nset=_PickedSet127, internal
   42,  642,  643,  644,  645,  646,  647,  648,  649,  650,  651,  652,  653,  654,  655,  656
 6390, 6391, 6392, 6393, 6394, 6395, 6396, 6397, 6398, 6399, 6400, 6401, 6402, 6403, 6404, 6405
 6406, 6407, 6408, 6409, 6410, 6411, 6412, 6413, 6414
*Elset, elset=_PickedSet127, internal, generate
 6162,  6193,     1
*Nset, nset=_PickedSet128, internal
   37, 1116, 1117, 1118, 1119, 1120, 1121, 1122, 1123, 1124, 1125, 1126, 1127, 1128, 1129, 1130
 6369, 6370, 6371, 6372, 6373, 6374, 6375, 6376, 6377, 6378, 6379, 6380, 6381, 6382, 6383, 6384
 6385, 6386, 6387, 6388, 6389
*Elset, elset=_PickedSet128, internal, generate
 6134,  6161,     1
*Nset, nset=_PickedSet129, internal
   14,  625,  626,  627,  628,  629,  630,  631,  632,  633,  634,  635,  636,  637,  638,  639
  640,  641, 6333, 6334, 6335, 6336, 6337, 6338, 6339, 6340, 6341, 6342, 6343, 6344, 6345, 6346
 6347, 6348, 6349, 6350, 6351, 6352, 6353, 6354, 6355, 6356, 6357, 6358, 6359, 6360, 6361, 6362
 6363, 6364, 6365, 6366, 6367, 6368
*Elset, elset=_PickedSet129, internal, generate
 6090,  6133,     1
*Nset, nset=_PickedSet130, internal
   66, 1131, 1132, 1133, 1134, 1135, 1136, 1137, 1138, 1139, 1140, 1141, 6315, 6316, 6317, 6318
 6319, 6320, 6321, 6322, 6323, 6324, 6325, 6326, 6327, 6328, 6329, 6330, 6331, 6332
*Elset, elset=_PickedSet130, internal, generate
 6067,  6089,     1
*Nset, nset=_PickedSet131, internal
   78,  608,  609,  610,  611,  612,  613,  614,  615,  616,  617,  618,  619,  620,  621,  622
  623,  624, 6287, 6288, 6289, 6290, 6291, 6292, 6293, 6294, 6295, 6296, 6297, 6298, 6299, 6300
 6301, 6302, 6303, 6304, 6305, 6306, 6307, 6308, 6309, 6310, 6311, 6312, 6313, 6314
*Elset, elset=_PickedSet131, internal, generate
 6031,  6066,     1
*Nset, nset=_PickedSet132, internal
   89, 1142, 1143, 1144, 1145, 1146, 1147, 1148, 1149, 1150, 1151, 1152, 6263, 6264, 6265, 6266
 6267, 6268, 6269, 6270, 6271, 6272, 6273, 6274, 6275, 6276, 6277, 6278, 6279, 6280, 6281, 6282
 6283, 6284, 6285, 6286
*Elset, elset=_PickedSet132, internal, generate
 6002,  6030,     1
*Nset, nset=_PickedSet133, internal
  103,  595,  596,  597,  598,  599,  600,  601,  602,  603,  604,  605,  606,  607, 6243, 6244
 6245, 6246, 6247, 6248, 6249, 6250, 6251, 6252, 6253, 6254, 6255, 6256, 6257, 6258, 6259, 6260
 6261, 6262
*Elset, elset=_PickedSet133, internal, generate
 5976,  6001,     1
*Nset, nset=_PickedSet134, internal
    2, 1153, 1154, 1155, 1156, 1157, 1158, 1159, 1160, 1161, 1162, 1163, 1164, 1165, 1166, 1167
 6217, 6218, 6219, 6220, 6221, 6222, 6223, 6224, 6225, 6226, 6227, 6228, 6229, 6230, 6231, 6232
 6233, 6234, 6235, 6236, 6237, 6238, 6239, 6240, 6241, 6242
*Elset, elset=_PickedSet134, internal, generate
 5943,  5975,     1
*Nset, nset=_PickedSet135, internal
    8,  582,  583,  584,  585,  586,  587,  588,  589,  590,  591,  592,  593,  594, 6194, 6195
 6196, 6197, 6198, 6199, 6200, 6201, 6202, 6203, 6204, 6205, 6206, 6207, 6208, 6209, 6210, 6211
 6212, 6213, 6214, 6215, 6216
*Elset, elset=_PickedSet135, internal, generate
 5914,  5942,     1
*Nset, nset=_PickedSet136, internal
  101, 1168, 1169, 1170, 1171, 1172, 1173, 1174, 1175, 1176, 1177, 1178, 1179, 1180, 1181, 1182
 1183, 1184, 6170, 6171, 6172, 6173, 6174, 6175, 6176, 6177, 6178, 6179, 6180, 6181, 6182, 6183
 6184, 6185, 6186, 6187, 6188, 6189, 6190, 6191, 6192, 6193
*Elset, elset=_PickedSet136, internal, generate
 5882,  5913,     1
*Nset, nset=_PickedSet137, internal
   79,  571,  572,  573,  574,  575,  576,  577,  578,  579,  580,  581, 6155, 6156, 6157, 6158
 6159, 6160, 6161, 6162, 6163, 6164, 6165, 6166, 6167, 6168, 6169
*Elset, elset=_PickedSet137, internal, generate
 5862,  5881,     1
*Nset, nset=_PickedSet138, internal
   84, 1185, 1186, 1187, 1188, 1189, 1190, 1191, 1192, 1193, 1194, 1195, 1196, 1197, 1198, 1199
 1200, 1201, 6131, 6132, 6133, 6134, 6135, 6136, 6137, 6138, 6139, 6140, 6141, 6142, 6143, 6144
 6145, 6146, 6147, 6148, 6149, 6150, 6151, 6152, 6153, 6154
*Elset, elset=_PickedSet138, internal, generate
 5830,  5861,     1
*Nset, nset=_PickedSet139, internal
   98,  558,  559,  560,  561,  562,  563,  564,  565,  566,  567,  568,  569,  570, 6109, 6110
 6111, 6112, 6113, 6114, 6115, 6116, 6117, 6118, 6119, 6120, 6121, 6122, 6123, 6124, 6125, 6126
 6127, 6128, 6129, 6130
*Elset, elset=_PickedSet139, internal, generate
 5802,  5829,     1
*Nset, nset=_PickedSet140, internal
   31, 1202, 1203, 1204, 1205, 1206, 1207, 1208, 1209, 1210, 1211, 1212, 1213, 1214, 1215, 1216
 6075, 6076, 6077, 6078, 6079, 6080, 6081, 6082, 6083, 6084, 6085, 6086, 6087, 6088, 6089, 6090
 6091, 6092, 6093, 6094, 6095, 6096, 6097, 6098, 6099, 6100, 6101, 6102, 6103, 6104, 6105, 6106
 6107, 6108
*Elset, elset=_PickedSet140, internal, generate
 5761,  5801,     1
*Nset, nset=_PickedSet141, internal
   60,  545,  546,  547,  548,  549,  550,  551,  552,  553,  554,  555,  556,  557, 6055, 6056
 6057, 6058, 6059, 6060, 6061, 6062, 6063, 6064, 6065, 6066, 6067, 6068, 6069, 6070, 6071, 6072
 6073, 6074
*Elset, elset=_PickedSet141, internal, generate
 5735,  5760,     1
*Nset, nset=_PickedSet142, internal
   71, 1217, 1218, 1219, 1220, 1221, 1222, 1223, 1224, 1225, 1226, 1227, 1228, 1229, 6033, 6034
 6035, 6036, 6037, 6038, 6039, 6040, 6041, 6042, 6043, 6044, 6045, 6046, 6047, 6048, 6049, 6050
 6051, 6052, 6053, 6054
*Elset, elset=_PickedSet142, internal, generate
 5707,  5734,     1
*Nset, nset=_PickedSet143, internal
   23,  530,  531,  532,  533,  534,  535,  536,  537,  538,  539,  540,  541,  542,  543,  544
 5999, 6000, 6001, 6002, 6003, 6004, 6005, 6006, 6007, 6008, 6009, 6010, 6011, 6012, 6013, 6014
 6015, 6016, 6017, 6018, 6019, 6020, 6021, 6022, 6023, 6024, 6025, 6026, 6027, 6028, 6029, 6030
 6031, 6032
*Elset, elset=_PickedSet143, internal, generate
 5666,  5706,     1
*Nset, nset=_PickedSet144, internal
   22, 1230, 1231, 1232, 1233, 1234, 1235, 1236, 1237, 1238, 1239, 1240, 1241, 1242, 5981, 5982
 5983, 5984, 5985, 5986, 5987, 5988, 5989, 5990, 5991, 5992, 5993, 5994, 5995, 5996, 5997, 5998
*Elset, elset=_PickedSet144, internal, generate
 5642,  5665,     1
*Nset, nset=_PickedSet145, internal
   57,  515,  516,  517,  518,  519,  520,  521,  522,  523,  524,  525,  526,  527,  528,  529
 5960, 5961, 5962, 5963, 5964, 5965, 5966, 5967, 5968, 5969, 5970, 5971, 5972, 5973, 5974, 5975
 5976, 5977, 5978, 5979, 5980
*Elset, elset=_PickedSet145, internal, generate
 5614,  5641,     1
*Nset, nset=_PickedSet146, internal
   86, 1243, 1244, 1245, 1246, 1247, 1248, 1249, 1250, 1251, 1252, 1253, 1254, 1255, 1256, 1257
 5934, 5935, 5936, 5937, 5938, 5939, 5940, 5941, 5942, 5943, 5944, 5945, 5946, 5947, 5948, 5949
 5950, 5951, 5952, 5953, 5954, 5955, 5956, 5957, 5958, 5959
*Elset, elset=_PickedSet146, internal, generate
 5581,  5613,     1
*Nset, nset=_PickedSet147, internal
   96,  500,  501,  502,  503,  504,  505,  506,  507,  508,  509,  510,  511,  512,  513,  514
 5910, 5911, 5912, 5913, 5914, 5915, 5916, 5917, 5918, 5919, 5920, 5921, 5922, 5923, 5924, 5925
 5926, 5927, 5928, 5929, 5930, 5931, 5932, 5933
*Elset, elset=_PickedSet147, internal, generate
 5550,  5580,     1
*Nset, nset=_PickedSet148, internal
   97, 1258, 1259, 1260, 1261, 1262, 1263, 1264, 1265, 1266, 1267, 1268, 1269, 1270, 1271, 1272
 1273, 1274, 5886, 5887, 5888, 5889, 5890, 5891, 5892, 5893, 5894, 5895, 5896, 5897, 5898, 5899
 5900, 5901, 5902, 5903, 5904, 5905, 5906, 5907, 5908, 5909
*Elset, elset=_PickedSet148, internal, generate
 5518,  5549,     1
*Nset, nset=_PickedSet149, internal
   39,  487,  488,  489,  490,  491,  492,  493,  494,  495,  496,  497,  498,  499, 5868, 5869
 5870, 5871, 5872, 5873, 5874, 5875, 5876, 5877, 5878, 5879, 5880, 5881, 5882, 5883, 5884, 5885
*Elset, elset=_PickedSet149, internal, generate
 5494,  5517,     1
*Nset, nset=_PickedSet150, internal
   68, 1275, 1276, 1277, 1278, 1279, 1280, 1281, 1282, 1283, 1284, 1285, 1286, 1287, 5848, 5849
 5850, 5851, 5852, 5853, 5854, 5855, 5856, 5857, 5858, 5859, 5860, 5861, 5862, 5863, 5864, 5865
 5866, 5867
*Elset, elset=_PickedSet150, internal, generate
 5468,  5493,     1
*Nset, nset=_PickedSet151, internal
   49,  470,  471,  472,  473,  474,  475,  476,  477,  478,  479,  480,  481,  482,  483,  484
  485,  486, 5805, 5806, 5807, 5808, 5809, 5810, 5811, 5812, 5813, 5814, 5815, 5816, 5817, 5818
 5819, 5820, 5821, 5822, 5823, 5824, 5825, 5826, 5827, 5828, 5829, 5830, 5831, 5832, 5833, 5834
 5835, 5836, 5837, 5838, 5839, 5840, 5841, 5842, 5843, 5844, 5845, 5846, 5847
*Elset, elset=_PickedSet151, internal, generate
 5417,  5467,     1
*Nset, nset=_PickedSet152, internal
   28, 1288, 1289, 1290, 1291, 1292, 1293, 1294, 1295, 1296, 1297, 1298, 1299, 1300, 5787, 5788
 5789, 5790, 5791, 5792, 5793, 5794, 5795, 5796, 5797, 5798, 5799, 5800, 5801, 5802, 5803, 5804
*Elset, elset=_PickedSet152, internal, generate
 5393,  5416,     1
*Nset, nset=_PickedSet153, internal
   35,  457,  458,  459,  460,  461,  462,  463,  464,  465,  466,  467,  468,  469, 5759, 5760
 5761, 5762, 5763, 5764, 5765, 5766, 5767, 5768, 5769, 5770, 5771, 5772, 5773, 5774, 5775, 5776
 5777, 5778, 5779, 5780, 5781, 5782, 5783, 5784, 5785, 5786
*Elset, elset=_PickedSet153, internal, generate
 5359,  5392,     1
*Nset, nset=_PickedSet154, internal
   43, 1301, 1302, 1303, 1304, 1305, 1306, 1307, 1308, 1309, 1310, 1311, 1312, 1313, 1314, 1315
 1316, 1317, 5729, 5730, 5731, 5732, 5733, 5734, 5735, 5736, 5737, 5738, 5739, 5740, 5741, 5742
 5743, 5744, 5745, 5746, 5747, 5748, 5749, 5750, 5751, 5752, 5753, 5754, 5755, 5756, 5757, 5758
*Elset, elset=_PickedSet154, internal, generate
 5321,  5358,     1
*Nset, nset=_PickedSet155, internal
   92,  442,  443,  444,  445,  446,  447,  448,  449,  450,  451,  452,  453,  454,  455,  456
 5708, 5709, 5710, 5711, 5712, 5713, 5714, 5715, 5716, 5717, 5718, 5719, 5720, 5721, 5722, 5723
 5724, 5725, 5726, 5727, 5728
*Elset, elset=_PickedSet155, internal, generate
 5293,  5320,     1
*Nset, nset=_PickedSet156, internal
   36, 1318, 1319, 1320, 1321, 1322, 1323, 1324, 1325, 1326, 1327, 1328, 1329, 1330, 5690, 5691
 5692, 5693, 5694, 5695, 5696, 5697, 5698, 5699, 5700, 5701, 5702, 5703, 5704, 5705, 5706, 5707
*Elset, elset=_PickedSet156, internal, generate
 5269,  5292,     1
*Nset, nset=_PickedSet157, internal
   80,  431,  432,  433,  434,  435,  436,  437,  438,  439,  440,  441, 5675, 5676, 5677, 5678
 5679, 5680, 5681, 5682, 5683, 5684, 5685, 5686, 5687, 5688, 5689
*Elset, elset=_PickedSet157, internal, generate
 5249,  5268,     1
*Nset, nset=_PickedSet158, internal
   54, 1331, 1332, 1333, 1334, 1335, 1336, 1337, 1338, 1339, 1340, 1341, 1342, 1343, 1344, 1345
 1346, 1347, 5642, 5643, 5644, 5645, 5646, 5647, 5648, 5649, 5650, 5651, 5652, 5653, 5654, 5655
 5656, 5657, 5658, 5659, 5660, 5661, 5662, 5663, 5664, 5665, 5666, 5667, 5668, 5669, 5670, 5671
 5672, 5673, 5674
*Elset, elset=_PickedSet158, internal, generate
 5208,  5248,     1
*Nset, nset=_PickedSet159, internal
   76,  416,  417,  418,  419,  420,  421,  422,  423,  424,  425,  426,  427,  428,  429,  430
 5621, 5622, 5623, 5624, 5625, 5626, 5627, 5628, 5629, 5630, 5631, 5632, 5633, 5634, 5635, 5636
 5637, 5638, 5639, 5640, 5641
*Elset, elset=_PickedSet159, internal, generate
 5180,  5207,     1
*Nset, nset=_PickedSet160, internal
   51, 1348, 1349, 1350, 1351, 1352, 1353, 1354, 1355, 1356, 1357, 1358, 1359, 1360, 1361, 1362
 5593, 5594, 5595, 5596, 5597, 5598, 5599, 5600, 5601, 5602, 5603, 5604, 5605, 5606, 5607, 5608
 5609, 5610, 5611, 5612, 5613, 5614, 5615, 5616, 5617, 5618, 5619, 5620
*Elset, elset=_PickedSet160, internal, generate
 5145,  5179,     1
*Nset, nset=_PickedSet161, internal
   61,  401,  402,  403,  404,  405,  406,  407,  408,  409,  410,  411,  412,  413,  414,  415
 5567, 5568, 5569, 5570, 5571, 5572, 5573, 5574, 5575, 5576, 5577, 5578, 5579, 5580, 5581, 5582
 5583, 5584, 5585, 5586, 5587, 5588, 5589, 5590, 5591, 5592
*Elset, elset=_PickedSet161, internal, generate
 5112,  5144,     1
*Nset, nset=_PickedSet162, internal
   72, 1363, 1364, 1365, 1366, 1367, 1368, 1369, 1370, 1371, 1372, 1373, 1374, 1375, 1376, 1377
 1378, 1379, 5543, 5544, 5545, 5546, 5547, 5548, 5549, 5550, 5551, 5552, 5553, 5554, 5555, 5556
 5557, 5558, 5559, 5560, 5561, 5562, 5563, 5564, 5565, 5566
*Elset, elset=_PickedSet162, internal, generate
 5080,  5111,     1
*Nset, nset=_PickedSet163, internal
   50,  386,  387,  388,  389,  390,  391,  392,  393,  394,  395,  396,  397,  398,  399,  400
 5512, 5513, 5514, 5515, 5516, 5517, 5518, 5519, 5520, 5521, 5522, 5523, 5524, 5525, 5526, 5527
 5528, 5529, 5530, 5531, 5532, 5533, 5534, 5535, 5536, 5537, 5538, 5539, 5540, 5541, 5542
*Elset, elset=_PickedSet163, internal, generate
 5042,  5079,     1
*Nset, nset=_PickedSet164, internal
   40, 1380, 1381, 1382, 1383, 1384, 1385, 1386, 1387, 1388, 1389, 1390, 1391, 1392, 1393, 1394
 5488, 5489, 5490, 5491, 5492, 5493, 5494, 5495, 5496, 5497, 5498, 5499, 5500, 5501, 5502, 5503
 5504, 5505, 5506, 5507, 5508, 5509, 5510, 5511
*Elset, elset=_PickedSet164, internal, generate
 5011,  5041,     1
*Nset, nset=_PickedSet165, internal
   41,  371,  372,  373,  374,  375,  376,  377,  378,  379,  380,  381,  382,  383,  384,  385
 5464, 5465, 5466, 5467, 5468, 5469, 5470, 5471, 5472, 5473, 5474, 5475, 5476, 5477, 5478, 5479
 5480, 5481, 5482, 5483, 5484, 5485, 5486, 5487
*Elset, elset=_PickedSet165, internal, generate
 4980,  5010,     1
*Nset, nset=_PickedSet166, internal
   20, 1395, 1396, 1397, 1398, 1399, 1400, 1401, 1402, 1403, 5452, 5453, 5454, 5455, 5456, 5457
 5458, 5459, 5460, 5461, 5462, 5463
*Elset, elset=_PickedSet166, internal, generate
 4964,  4979,     1
*Nset, nset=_PickedSet167, internal
    6,  354,  355,  356,  357,  358,  359,  360,  361,  362,  363,  364,  365,  366,  367,  368
  369,  370, 5424, 5425, 5426, 5427, 5428, 5429, 5430, 5431, 5432, 5433, 5434, 5435, 5436, 5437
 5438, 5439, 5440, 5441, 5442, 5443, 5444, 5445, 5446, 5447, 5448, 5449, 5450, 5451
*Elset, elset=_PickedSet167, internal, generate
 4928,  4963,     1
*Nset, nset=_PickedSet168, internal
   45, 1404, 1405, 1406, 1407, 1408, 1409, 1410, 1411, 1412, 1413, 1414, 1415, 1416, 1417, 1418
 1419, 1420, 5394, 5395, 5396, 5397, 5398, 5399, 5400, 5401, 5402, 5403, 5404, 5405, 5406, 5407
 5408, 5409, 5410, 5411, 5412, 5413, 5414, 5415, 5416, 5417, 5418, 5419, 5420, 5421, 5422, 5423
*Elset, elset=_PickedSet168, internal, generate
 4890,  4927,     1
*Nset, nset=_PickedSet169, internal
    5,  341,  342,  343,  344,  345,  346,  347,  348,  349,  350,  351,  352,  353, 5372, 5373
 5374, 5375, 5376, 5377, 5378, 5379, 5380, 5381, 5382, 5383, 5384, 5385, 5386, 5387, 5388, 5389
 5390, 5391, 5392, 5393
*Elset, elset=_PickedSet169, internal, generate
 4862,  4889,     1
*Nset, nset=_PickedSet170, internal
   17, 1421, 1422, 1423, 1424, 1425, 1426, 1427, 1428, 1429, 1430, 1431, 1432, 1433, 5352, 5353
 5354, 5355, 5356, 5357, 5358, 5359, 5360, 5361, 5362, 5363, 5364, 5365, 5366, 5367, 5368, 5369
 5370, 5371
*Elset, elset=_PickedSet170, internal, generate
 4836,  4861,     1
*Nset, nset=_PickedSet171, internal
   70,  326,  327,  328,  329,  330,  331,  332,  333,  334,  335,  336,  337,  338,  339,  340
 5320, 5321, 5322, 5323, 5324, 5325, 5326, 5327, 5328, 5329, 5330, 5331, 5332, 5333, 5334, 5335
 5336, 5337, 5338, 5339, 5340, 5341, 5342, 5343, 5344, 5345, 5346, 5347, 5348, 5349, 5350, 5351
*Elset, elset=_PickedSet171, internal, generate
 4797,  4835,     1
*Nset, nset=_PickedSet172, internal
   74, 1434, 1435, 1436, 1437, 1438, 1439, 1440, 1441, 1442, 1443, 1444, 1445, 1446, 1447, 1448
 1449, 1450, 1451, 1452, 5285, 5286, 5287, 5288, 5289, 5290, 5291, 5292, 5293, 5294, 5295, 5296
 5297, 5298, 5299, 5300, 5301, 5302, 5303, 5304, 5305, 5306, 5307, 5308, 5309, 5310, 5311, 5312
 5313, 5314, 5315, 5316, 5317, 5318, 5319
*Elset, elset=_PickedSet172, internal, generate
 4753,  4796,     1
*Nset, nset=_PickedSet173, internal
   83,  311,  312,  313,  314,  315,  316,  317,  318,  319,  320,  321,  322,  323,  324,  325
 5257, 5258, 5259, 5260, 5261, 5262, 5263, 5264, 5265, 5266, 5267, 5268, 5269, 5270, 5271, 5272
 5273, 5274, 5275, 5276, 5277, 5278, 5279, 5280, 5281, 5282, 5283, 5284
*Elset, elset=_PickedSet173, internal, generate
 4718,  4752,     1
*Nset, nset=_PickedSet174, internal
  102, 1453, 1454, 1455, 1456, 1457, 1458, 1459, 1460, 1461, 1462, 1463, 1464, 1465, 1466, 1467
 1468, 1469, 5223, 5224, 5225, 5226, 5227, 5228, 5229, 5230, 5231, 5232, 5233, 5234, 5235, 5236
 5237, 5238, 5239, 5240, 5241, 5242, 5243, 5244, 5245, 5246, 5247, 5248, 5249, 5250, 5251, 5252
 5253, 5254, 5255, 5256
*Elset, elset=_PickedSet174, internal, generate
 4676,  4717,     1
*Nset, nset=_PickedSet175, internal
   82,  300,  301,  302,  303,  304,  305,  306,  307,  308,  309,  310, 5205, 5206, 5207, 5208
 5209, 5210, 5211, 5212, 5213, 5214, 5215, 5216, 5217, 5218, 5219, 5220, 5221, 5222
*Elset, elset=_PickedSet175, internal, generate
 4653,  4675,     1
*Nset, nset=_PickedSet176, internal
   30, 1470, 1471, 1472, 1473, 1474, 1475, 1476, 1477, 1478, 1479, 1480, 1481, 1482, 1483, 1484
 5184, 5185, 5186, 5187, 5188, 5189, 5190, 5191, 5192, 5193, 5194, 5195, 5196, 5197, 5198, 5199
 5200, 5201, 5202, 5203, 5204
*Elset, elset=_PickedSet176, internal, generate
 4625,  4652,     1
*Nset, nset=_PickedSet177, internal
   24,  283,  284,  285,  286,  287,  288,  289,  290,  291,  292,  293,  294,  295,  296,  297
  298,  299, 5151, 5152, 5153, 5154, 5155, 5156, 5157, 5158, 5159, 5160, 5161, 5162, 5163, 5164
 5165, 5166, 5167, 5168, 5169, 5170, 5171, 5172, 5173, 5174, 5175, 5176, 5177, 5178, 5179, 5180
 5181, 5182, 5183
*Elset, elset=_PickedSet177, internal, generate
 4584,  4624,     1
*Nset, nset=_PickedSet178, internal
   75, 1485, 1486, 1487, 1488, 1489, 1490, 1491, 1492, 1493, 1494, 1495, 1496, 1497, 1498, 1499
 1500, 1501, 5118, 5119, 5120, 5121, 5122, 5123, 5124, 5125, 5126, 5127, 5128, 5129, 5130, 5131
 5132, 5133, 5134, 5135, 5136, 5137, 5138, 5139, 5140, 5141, 5142, 5143, 5144, 5145, 5146, 5147
 5148, 5149, 5150
*Elset, elset=_PickedSet178, internal, generate
 4543,  4583,     1
*Nset, nset=_PickedSet179, internal
   47,  268,  269,  270,  271,  272,  273,  274,  275,  276,  277,  278,  279,  280,  281,  282
 5097, 5098, 5099, 5100, 5101, 5102, 5103, 5104, 5105, 5106, 5107, 5108, 5109, 5110, 5111, 5112
 5113, 5114, 5115, 5116, 5117
*Elset, elset=_PickedSet179, internal, generate
 4515,  4542,     1
*Nset, nset=_PickedSet180, internal
   26, 1502, 1503, 1504, 1505, 1506, 1507, 1508, 1509, 1510, 1511, 1512, 1513, 1514, 1515, 1516
 5063, 5064, 5065, 5066, 5067, 5068, 5069, 5070, 5071, 5072, 5073, 5074, 5075, 5076, 5077, 5078
 5079, 5080, 5081, 5082, 5083, 5084, 5085, 5086, 5087, 5088, 5089, 5090, 5091, 5092, 5093, 5094
 5095, 5096
*Elset, elset=_PickedSet180, internal, generate
 4474,  4514,     1
*Nset, nset=_PickedSet181, internal
   93,  257,  258,  259,  260,  261,  262,  263,  264,  265,  266,  267, 5048, 5049, 5050, 5051
 5052, 5053, 5054, 5055, 5056, 5057, 5058, 5059, 5060, 5061, 5062
*Elset, elset=_PickedSet181, internal, generate
 4454,  4473,     1
*Nset, nset=_PickedSet182, internal
   73, 1517, 1518, 1519, 1520, 1521, 1522, 1523, 1524, 1525, 1526, 1527, 1528, 1529, 5025, 5026
 5027, 5028, 5029, 5030, 5031, 5032, 5033, 5034, 5035, 5036, 5037, 5038, 5039, 5040, 5041, 5042
 5043, 5044, 5045, 5046, 5047
*Elset, elset=_PickedSet182, internal, generate
 4425,  4453,     1
*Nset, nset=_PickedSet183, internal
   21,  244,  245,  246,  247,  248,  249,  250,  251,  252,  253,  254,  255,  256, 5007, 5008
 5009, 5010, 5011, 5012, 5013, 5014, 5015, 5016, 5017, 5018, 5019, 5020, 5021, 5022, 5023, 5024
*Elset, elset=_PickedSet183, internal, generate
 4401,  4424,     1
*Nset, nset=_PickedSet184, internal
    9, 1530, 1531, 1532, 1533, 1534, 1535, 1536, 1537, 1538, 1539, 1540, 1541, 1542, 4989, 4990
 4991, 4992, 4993, 4994, 4995, 4996, 4997, 4998, 4999, 5000, 5001, 5002, 5003, 5004, 5005, 5006
*Elset, elset=_PickedSet184, internal, generate
 4377,  4400,     1
*Nset, nset=_PickedSet185, internal
   69,  229,  230,  231,  232,  233,  234,  235,  236,  237,  238,  239,  240,  241,  242,  243
 4964, 4965, 4966, 4967, 4968, 4969, 4970, 4971, 4972, 4973, 4974, 4975, 4976, 4977, 4978, 4979
 4980, 4981, 4982, 4983, 4984, 4985, 4986, 4987, 4988
*Elset, elset=_PickedSet185, internal, generate
 4345,  4376,     1
*Nset, nset=_PickedSet186, internal
   65, 1543, 1544, 1545, 1546, 1547, 1548, 1549, 1550, 1551, 1552, 1553, 1554, 1555, 4946, 4947
 4948, 4949, 4950, 4951, 4952, 4953, 4954, 4955, 4956, 4957, 4958, 4959, 4960, 4961, 4962, 4963
*Elset, elset=_PickedSet186, internal, generate
 4321,  4344,     1
*Nset, nset=_PickedSet187, internal
   19,  216,  217,  218,  219,  220,  221,  222,  223,  224,  225,  226,  227,  228, 4926, 4927
 4928, 4929, 4930, 4931, 4932, 4933, 4934, 4935, 4936, 4937, 4938, 4939, 4940, 4941, 4942, 4943
 4944, 4945
*Elset, elset=_PickedSet187, internal, generate
 4295,  4320,     1
*Nset, nset=_PickedSet188, internal
   13, 1556, 1557, 1558, 1559, 1560, 1561, 1562, 1563, 1564, 1565, 1566, 1567, 1568, 1569, 1570
 1571, 1572, 4902, 4903, 4904, 4905, 4906, 4907, 4908, 4909, 4910, 4911, 4912, 4913, 4914, 4915
 4916, 4917, 4918, 4919, 4920, 4921, 4922, 4923, 4924, 4925
*Elset, elset=_PickedSet188, internal, generate
 4263,  4294,     1
*Nset, nset=_PickedSet189, internal
   56,  203,  204,  205,  206,  207,  208,  209,  210,  211,  212,  213,  214,  215, 4878, 4879
 4880, 4881, 4882, 4883, 4884, 4885, 4886, 4887, 4888, 4889, 4890, 4891, 4892, 4893, 4894, 4895
 4896, 4897, 4898, 4899, 4900, 4901
*Elset, elset=_PickedSet189, internal, generate
 4233,  4262,     1
*Nset, nset=_PickedSet190, internal
  100, 1573, 1574, 1575, 1576, 1577, 1578, 1579, 1580, 1581, 1582, 1583, 1584, 1585, 4855, 4856
 4857, 4858, 4859, 4860, 4861, 4862, 4863, 4864, 4865, 4866, 4867, 4868, 4869, 4870, 4871, 4872
 4873, 4874, 4875, 4876, 4877
*Elset, elset=_PickedSet190, internal, generate
 4204,  4232,     1
*Nset, nset=_PickedSet191, internal
   52,  186,  187,  188,  189,  190,  191,  192,  193,  194,  195,  196,  197,  198,  199,  200
  201,  202, 4825, 4826, 4827, 4828, 4829, 4830, 4831, 4832, 4833, 4834, 4835, 4836, 4837, 4838
 4839, 4840, 4841, 4842, 4843, 4844, 4845, 4846, 4847, 4848, 4849, 4850, 4851, 4852, 4853, 4854
*Elset, elset=_PickedSet191, internal, generate
 4166,  4203,     1
*Nset, nset=_PickedSet192, internal
   99, 1586, 1587, 1588, 1589, 1590, 1591, 1592, 1593, 1594, 1595, 1596, 1597, 1598, 4807, 4808
 4809, 4810, 4811, 4812, 4813, 4814, 4815, 4816, 4817, 4818, 4819, 4820, 4821, 4822, 4823, 4824
*Elset, elset=_PickedSet192, internal, generate
 4142,  4165,     1
*Nset, nset=_PickedSet193, internal
   33,  173,  174,  175,  176,  177,  178,  179,  180,  181,  182,  183,  184,  185, 4785, 4786
 4787, 4788, 4789, 4790, 4791, 4792, 4793, 4794, 4795, 4796, 4797, 4798, 4799, 4800, 4801, 4802
 4803, 4804, 4805, 4806
*Elset, elset=_PickedSet193, internal, generate
 4114,  4141,     1
*Nset, nset=_PickedSet194, internal
  105, 1599, 1600, 1601, 1602, 1603, 1604, 1605, 1606, 1607, 1608, 1609, 1610, 1611, 1612, 1613
 4761, 4762, 4763, 4764, 4765, 4766, 4767, 4768, 4769, 4770, 4771, 4772, 4773, 4774, 4775, 4776
 4777, 4778, 4779, 4780, 4781, 4782, 4783, 4784
*Elset, elset=_PickedSet194, internal, generate
 4083,  4113,     1
*Nset, nset=_PickedSet195, internal
   12,  160,  161,  162,  163,  164,  165,  166,  167,  168,  169,  170,  171,  172, 4743, 4744
 4745, 4746, 4747, 4748, 4749, 4750, 4751, 4752, 4753, 4754, 4755, 4756, 4757, 4758, 4759, 4760
*Elset, elset=_PickedSet195, internal, generate
 4059,  4082,     1
*Nset, nset=_PickedSet196, internal
   53, 1614, 1615, 1616, 1617, 1618, 1619, 1620, 1621, 1622, 1623, 1624, 1625, 1626, 4719, 4720
 4721, 4722, 4723, 4724, 4725, 4726, 4727, 4728, 4729, 4730, 4731, 4732, 4733, 4734, 4735, 4736
 4737, 4738, 4739, 4740, 4741, 4742
*Elset, elset=_PickedSet196, internal, generate
 4029,  4058,     1
*Nset, nset=_PickedSet197, internal
   32,  149,  150,  151,  152,  153,  154,  155,  156,  157,  158,  159, 4704, 4705, 4706, 4707
 4708, 4709, 4710, 4711, 4712, 4713, 4714, 4715, 4716, 4717, 4718
*Elset, elset=_PickedSet197, internal, generate
 4009,  4028,     1
*Nset, nset=_PickedSet198, internal
    3, 1627, 1628, 1629, 1630, 1631, 1632, 1633, 1634, 1635, 1636, 1637, 1638, 1639, 1640, 1641
 4680, 4681, 4682, 4683, 4684, 4685, 4686, 4687, 4688, 4689, 4690, 4691, 4692, 4693, 4694, 4695
 4696, 4697, 4698, 4699, 4700, 4701, 4702, 4703
*Elset, elset=_PickedSet198, internal, generate
 3978,  4008,     1
*Nset, nset=_PickedSet199, internal
   62,  136,  137,  138,  139,  140,  141,  142,  143,  144,  145,  146,  147,  148, 4662, 4663
 4664, 4665, 4666, 4667, 4668, 4669, 4670, 4671, 4672, 4673, 4674, 4675, 4676, 4677, 4678, 4679
*Elset, elset=_PickedSet199, internal, generate
 3954,  3977,     1
*Nset, nset=_PickedSet200, internal
   29, 1642, 1643, 1644, 1645, 1646, 1647, 1648, 1649, 1650, 1651, 1652, 1653, 1654, 1655, 1656
 1657, 1658, 1659, 1660, 4624, 4625, 4626, 4627, 4628, 4629, 4630, 4631, 4632, 4633, 4634, 4635
 4636, 4637, 4638, 4639, 4640, 4641, 4642, 4643, 4644, 4645, 4646, 4647, 4648, 4649, 4650, 4651
 4652, 4653, 4654, 4655, 4656, 4657, 4658, 4659, 4660, 4661
*Elset, elset=_PickedSet200, internal, generate
 3907,  3953,     1
*Nset, nset=_PickedSet201, internal
   46,  123,  124,  125,  126,  127,  128,  129,  130,  131,  132,  133,  134,  135, 4604, 4605
 4606, 4607, 4608, 4609, 4610, 4611, 4612, 4613, 4614, 4615, 4616, 4617, 4618, 4619, 4620, 4621
 4622, 4623
*Elset, elset=_PickedSet201, internal, generate
 3881,  3906,     1
*Nset, nset=_PickedSet202, internal
   87, 1661, 1662, 1663, 1664, 1665, 1666, 1667, 1668, 1669, 1670, 1671, 1672, 1673, 1674, 1675
 1676, 1677, 4580, 4581, 4582, 4583, 4584, 4585, 4586, 4587, 4588, 4589, 4590, 4591, 4592, 4593
 4594, 4595, 4596, 4597, 4598, 4599, 4600, 4601, 4602, 4603
*Elset, elset=_PickedSet202, internal, generate
 3849,  3880,     1
*Nset, nset=_PickedSet203, internal
   10,  106,  107,  108,  109,  110,  111,  112,  113,  114,  115,  116,  117,  118,  119,  120
  121,  122, 4541, 4542, 4543, 4544, 4545, 4546, 4547, 4548, 4549, 4550, 4551, 4552, 4553, 4554
 4555, 4556, 4557, 4558, 4559, 4560, 4561, 4562, 4563, 4564, 4565, 4566, 4567, 4568, 4569, 4570
 4571, 4572, 4573, 4574, 4575, 4576, 4577, 4578, 4579
*Elset, elset=_PickedSet203, internal, generate
 3802,  3848,     1
*Nset, nset=_PickedSet204, internal
   15, 1678, 1679, 1680, 1681, 1682, 1683, 1684, 1685, 1686, 1687, 1688, 1689, 1690, 1691, 1692
 4507, 4508, 4509, 4510, 4511, 4512, 4513, 4514, 4515, 4516, 4517, 4518, 4519, 4520, 4521, 4522
 4523, 4524, 4525, 4526, 4527, 4528, 4529, 4530, 4531, 4532, 4533, 4534, 4535, 4536, 4537, 4538
 4539, 4540
*Elset, elset=_PickedSet204, internal, generate
 3761,  3801,     1
** Section: Matrix
*Solid Section, elset=_PickedSet103, material=PEEK
,
** Section: Inclusion
*Solid Section, elset=_PickedSet204, material=CARBON
,
** Section: Inclusion
*Solid Section, elset=_PickedSet203, material=CARBON
,
** Section: Inclusion
*Solid Section, elset=_PickedSet202, material=CARBON
,
** Section: Inclusion
*Solid Section, elset=_PickedSet201, material=CARBON
,
** Section: Inclusion
*Solid Section, elset=_PickedSet200, material=CARBON
,
** Section: Inclusion
*Solid Section, elset=_PickedSet199, material=CARBON
,
** Section: Inclusion
*Solid Section, elset=_PickedSet198, material=CARBON
,
** Section: Inclusion
*Solid Section, elset=_PickedSet197, material=CARBON
,
** Section: Inclusion
*Solid Section, elset=_PickedSet196, material=CARBON
,
** Section: Inclusion
*Solid Section, elset=_PickedSet195, material=CARBON
,
** Section: Inclusion
*Solid Section, elset=_PickedSet194, material=CARBON
,
** Section: Inclusion
*Solid Section, elset=_PickedSet193, material=CARBON
,
** Section: Inclusion
*Solid Section, elset=_PickedSet192, material=CARBON
,
** Section: Inclusion
*Solid Section, elset=_PickedSet191, material=CARBON
,
** Section: Inclusion
*Solid Section, elset=_PickedSet190, material=CARBON
,
** Section: Inclusion
*Solid Section, elset=_PickedSet189, material=CARBON
,
** Section: Inclusion
*Solid Section, elset=_PickedSet188, material=CARBON
,
** Section: Inclusion
*Solid Section, elset=_PickedSet187, material=CARBON
,
** Section: Inclusion
*Solid Section, elset=_PickedSet186, material=CARBON
,
** Section: Inclusion
*Solid Section, elset=_PickedSet185, material=CARBON
,
** Section: Inclusion
*Solid Section, elset=_PickedSet184, material=CARBON
,
** Section: Inclusion
*Solid Section, elset=_PickedSet183, material=CARBON
,
** Section: Inclusion
*Solid Section, elset=_PickedSet182, material=CARBON
,
** Section: Inclusion
*Solid Section, elset=_PickedSet181, material=CARBON
,
** Section: Inclusion
*Solid Section, elset=_PickedSet180, material=CARBON
,
** Section: Inclusion
*Solid Section, elset=_PickedSet179, material=CARBON
,
** Section: Inclusion
*Solid Section, elset=_PickedSet178, material=CARBON
,
** Section: Inclusion
*Solid Section, elset=_PickedSet177, material=CARBON
,
** Section: Inclusion
*Solid Section, elset=_PickedSet176, material=CARBON
,
** Section: Inclusion
*Solid Section, elset=_PickedSet175, material=CARBON
,
** Section: Inclusion
*Solid Section, elset=_PickedSet174, material=CARBON
,
** Section: Inclusion
*Solid Section, elset=_PickedSet173, material=CARBON
,
** Section: Inclusion
*Solid Section, elset=_PickedSet172, material=CARBON
,
** Section: Inclusion
*Solid Section, elset=_PickedSet171, material=CARBON
,
** Section: Inclusion
*Solid Section, elset=_PickedSet170, material=CARBON
,
** Section: Inclusion
*Solid Section, elset=_PickedSet169, material=CARBON
,
** Section: Inclusion
*Solid Section, elset=_PickedSet168, material=CARBON
,
** Section: Inclusion
*Solid Section, elset=_PickedSet167, material=CARBON
,
** Section: Inclusion
*Solid Section, elset=_PickedSet166, material=CARBON
,
** Section: Inclusion
*Solid Section, elset=_PickedSet165, material=CARBON
,
** Section: Inclusion
*Solid Section, elset=_PickedSet164, material=CARBON
,
** Section: Inclusion
*Solid Section, elset=_PickedSet163, material=CARBON
,
** Section: Inclusion
*Solid Section, elset=_PickedSet162, material=CARBON
,
** Section: Inclusion
*Solid Section, elset=_PickedSet161, material=CARBON
,
** Section: Inclusion
*Solid Section, elset=_PickedSet160, material=CARBON
,
** Section: Inclusion
*Solid Section, elset=_PickedSet159, material=CARBON
,
** Section: Inclusion
*Solid Section, elset=_PickedSet158, material=CARBON
,
** Section: Inclusion
*Solid Section, elset=_PickedSet157, material=CARBON
,
** Section: Inclusion
*Solid Section, elset=_PickedSet156, material=CARBON
,
** Section: Inclusion
*Solid Section, elset=_PickedSet155, material=CARBON
,
** Section: Inclusion
*Solid Section, elset=_PickedSet154, material=CARBON
,
** Section: Inclusion
*Solid Section, elset=_PickedSet153, material=CARBON
,
** Section: Inclusion
*Solid Section, elset=_PickedSet152, material=CARBON
,
** Section: Inclusion
*Solid Section, elset=_PickedSet151, material=CARBON
,
** Section: Inclusion
*Solid Section, elset=_PickedSet150, material=CARBON
,
** Section: Inclusion
*Solid Section, elset=_PickedSet149, material=CARBON
,
** Section: Inclusion
*Solid Section, elset=_PickedSet148, material=CARBON
,
** Section: Inclusion
*Solid Section, elset=_PickedSet147, material=CARBON
,
** Section: Inclusion
*Solid Section, elset=_PickedSet146, material=CARBON
,
** Section: Inclusion
*Solid Section, elset=_PickedSet145, material=CARBON
,
** Section: Inclusion
*Solid Section, elset=_PickedSet144, material=CARBON
,
** Section: Inclusion
*Solid Section, elset=_PickedSet143, material=CARBON
,
** Section: Inclusion
*Solid Section, elset=_PickedSet142, material=CARBON
,
** Section: Inclusion
*Solid Section, elset=_PickedSet141, material=CARBON
,
** Section: Inclusion
*Solid Section, elset=_PickedSet140, material=CARBON
,
** Section: Inclusion
*Solid Section, elset=_PickedSet139, material=CARBON
,
** Section: Inclusion
*Solid Section, elset=_PickedSet138, material=CARBON
,
** Section: Inclusion
*Solid Section, elset=_PickedSet137, material=CARBON
,
** Section: Inclusion
*Solid Section, elset=_PickedSet136, material=CARBON
,
** Section: Inclusion
*Solid Section, elset=_PickedSet135, material=CARBON
,
** Section: Inclusion
*Solid Section, elset=_PickedSet134, material=CARBON
,
** Section: Inclusion
*Solid Section, elset=_PickedSet133, material=CARBON
,
** Section: Inclusion
*Solid Section, elset=_PickedSet132, material=CARBON
,
** Section: Inclusion
*Solid Section, elset=_PickedSet131, material=CARBON
,
** Section: Inclusion
*Solid Section, elset=_PickedSet130, material=CARBON
,
** Section: Inclusion
*Solid Section, elset=_PickedSet129, material=CARBON
,
** Section: Inclusion
*Solid Section, elset=_PickedSet128, material=CARBON
,
** Section: Inclusion
*Solid Section, elset=_PickedSet127, material=CARBON
,
** Section: Inclusion
*Solid Section, elset=_PickedSet126, material=CARBON
,
** Section: Inclusion
*Solid Section, elset=_PickedSet125, material=CARBON
,
** Section: Inclusion
*Solid Section, elset=_PickedSet124, material=CARBON
,
** Section: Inclusion
*Solid Section, elset=_PickedSet123, material=CARBON
,
** Section: Inclusion
*Solid Section, elset=_PickedSet122, material=CARBON
,
** Section: Inclusion
*Solid Section, elset=_PickedSet121, material=CARBON
,
** Section: Inclusion
*Solid Section, elset=_PickedSet120, material=CARBON
,
** Section: Inclusion
*Solid Section, elset=_PickedSet119, material=CARBON
,
** Section: Inclusion
*Solid Section, elset=_PickedSet118, material=CARBON
,
** Section: Inclusion
*Solid Section, elset=_PickedSet117, material=CARBON
,
** Section: Inclusion
*Solid Section, elset=_PickedSet116, material=CARBON
,
** Section: Inclusion
*Solid Section, elset=_PickedSet115, material=CARBON
,
** Section: Inclusion
*Solid Section, elset=_PickedSet114, material=CARBON
,
** Section: Inclusion
*Solid Section, elset=_PickedSet113, material=CARBON
,
** Section: Inclusion
*Solid Section, elset=_PickedSet112, material=CARBON
,
** Section: Inclusion
*Solid Section, elset=_PickedSet111, material=CARBON
,
** Section: Inclusion
*Solid Section, elset=_PickedSet110, material=CARBON
,
** Section: Inclusion
*Solid Section, elset=_PickedSet109, material=CARBON
,
** Section: Inclusion
*Solid Section, elset=_PickedSet108, material=CARBON
,
** Section: Inclusion
*Solid Section, elset=_PickedSet107, material=CARBON
,
** Section: Inclusion
*Solid Section, elset=_PickedSet106, material=CARBON
,
** Section: Inclusion
*Solid Section, elset=_PickedSet105, material=CARBON
,
** Section: Inclusion
*Solid Section, elset=_PickedSet104, material=CARBON
,
*End Instance
**  
*Nset, nset=BottomEdge, instance=Part-1-1
  27,  81, 875, 876, 877, 878, 879, 880, 881, 882, 883, 884, 885, 886, 887, 888
 889, 890, 891, 892, 893, 894, 895, 896, 897, 898, 899, 900, 901
*Elset, elset=BottomEdge, instance=Part-1-1
 1073, 1081, 1087, 1088, 1304, 1306, 1307, 1314, 1315, 1516, 1517, 1525, 1526, 1740, 1753, 1755
 2001, 2002, 2280, 2281, 2526, 2527, 2528, 2817, 2818, 2819, 3073, 3085
*Nset, nset=TopEdge, instance=Part-1-1
  81, 104, 847, 848, 849, 850, 851, 852, 853, 854, 855, 856, 857, 858, 859, 860
 861, 862, 863, 864, 865, 866, 867, 868, 869, 870, 871, 872, 873, 874
*Elset, elset=TopEdge, instance=Part-1-1
 3084, 3085, 3208, 3211, 3253, 3254, 3255, 3274, 3277, 3372, 3373, 3374, 3375, 3402, 3403, 3404
 3405, 3416, 3417, 3507, 3508, 3596, 3608, 3664, 3665, 3724, 3725, 3746, 3747
*End Assembly
** 
** MATERIALS
** 
*Material, name=CARBON
*Elastic
240000, 0.3
*Material, name=PEEK
*Elastic
3720, 0.4
** ----------------------------------------------------------------
** 
** STEP: Step-1
** 
*Step, name=Step-1, nlgeom=NO, inc=10000
*Static
0.01, 1., 1e-12, 0.1
** 
** OUTPUT REQUESTS
** 
*Restart, write, frequency=0
** 
** FIELD OUTPUT: F-Output-1
** 
*Output, field, variable=PRESELECT
** 
** HISTORY OUTPUT: H-Output-2
** 
*Output, history
*Node Output, nset=BottomEdge
RF2, 
** 
** HISTORY OUTPUT: H-Output-1
** 
*Output, history, variable=PRESELECT
*End Step
