*Heading
** Job name: RVE_CF_PEEK_0_2 Model name: Aligned_ShortFibreComposite
** Generated by: Abaqus/CAE 2020
*Preprint, echo=NO, model=NO, history=NO, contact=NO
**
** PARTS
**
*Part, name=RVE2DComposite
*Node
      1, 0.0718096346, 0.0835661739
      2, -0.0641282052, 0.0835661739
      3, 0.0765272081, 0.0598390885
      4, 0.0949999988, 0.0949999988
      5, 0.0718096346,  0.073960118
      6, -0.0653814897, 0.0598390885
      7, -0.0641282052,  0.073960118
      8, -0.0949999988, 0.0949999988
      9, 0.0765272081, 0.0501384959
     10, -0.0653814897, 0.0501384959
     11, -0.0674075931, 0.0305431783
     12, 0.0691217557, -0.0203578193
     13, 0.0691217557, -0.0106565133
     14, 0.0683340505,   0.02101258
     15, 0.0683340505, 0.0305431783
     16, -0.0674075931,   0.02101258
     17, -0.0638534054, -0.0203578193
     18, 0.0628027692, -0.0477215424
     19, -0.0650678053, -0.0477215424
     20, -0.0638534054, -0.0106565133
** ... 421 like lines cut
*Element, type=CPS4R
  1,   1,  68,  69, 132
  2, 132,  69,  70, 131
  3, 131,  70,  71, 130
  4, 130,  71,  72, 129
  5, 129,  72,  73, 128
  6, 128,  73,  74, 127
  7, 127,  74,  75, 126
  8, 126,  75,  76, 125
  9, 125,  76,  77, 124
 10, 124,  77,  78, 123
 11, 123,  78,  79, 122
 12, 122,  79,  80, 121
 13, 121,  80,  81, 120
 14, 120,  81,  82, 119
 15, 119,  82,  83,   2
 16,   3, 251, 281, 252
 17, 251,  63,  64, 281
 18, 252, 281, 282,   5
 19, 281,  64,  65, 282
 20,   5, 282, 283,   1
** ... 380 like lines cut
*Nset, nset=_PickedSet3, internal, generate
   1,  441,    1
*Elset, elset=_PickedSet3, internal, generate
   1,  321,    1
*Nset, nset=_PickedSet4, internal
   1,   2,   5,   7, 105, 106, 107, 108, 109, 110, 111, 112, 113, 114, 115, 116
 117, 118, 119, 120, 121, 122, 123, 124, 125, 126, 127, 128, 129, 130, 131, 132
*Elset, elset=_PickedSet4, internal, generate
 322,  336,    1
*Nset, nset=_PickedSet5, internal
  18,  19,  21,  23, 133, 134, 135, 136, 137, 138, 139, 140, 141, 142, 143, 144
 145, 146, 147, 148, 149, 150, 151, 152, 153, 154, 155, 156
*Elset, elset=_PickedSet5, internal, generate
 337,  349,    1
*Nset, nset=_PickedSet6, internal
  11,  14,  15,  16, 157, 158, 159, 160, 161, 162, 163, 164, 165, 166, 167, 168
 169, 170, 171, 172, 173, 174, 175, 176, 177, 178, 179, 180, 181, 182
*Elset, elset=_PickedSet6, internal, generate
 350,  363,    1
*Nset, nset=_PickedSet7, internal
  12,  13,  17,  20, 183, 184, 185, 186, 187, 188, 189, 190, 191, 192, 193, 194
 195, 196, 197, 198, 199, 200, 201, 202, 203, 204, 205, 206, 207, 208
*Elset, elset=_PickedSet7, internal, generate
 364,  377,    1
*Nset, nset=_PickedSet8, internal
   3,   6,   9,  10, 209, 210, 211, 212, 213, 214, 215, 216, 217, 218, 219, 220
 221, 222, 223, 224, 225, 226, 227, 228, 229, 230, 231, 232, 233, 234, 235, 236
*Elset, elset=_PickedSet8, internal, generate
 378,  392,    1
*Nset, nset=_PickedSet9, internal
  25,  26,  27,  28, 237, 238, 239, 240, 241, 242, 243, 244, 245, 246, 247, 248
 249, 250
*Elset, elset=_PickedSet9, internal, generate
 393,  400,    1
** Section: matrixSection
*Solid Section, elset=_PickedSet3, material=PEEK
,
** Section: fibreSection
*Solid Section, elset=_PickedSet4, material=CARBON
,
** Section: fibreSection
*Solid Section, elset=_PickedSet5, material=CARBON
,
** Section: fibreSection
*Solid Section, elset=_PickedSet6, material=CARBON
,
** Section: fibreSection
*Solid Section, elset=_PickedSet7, material=CARBON
,
** Section: fibreSection
*Solid Section, elset=_PickedSet8, material=CARBON
,
** Section: fibreSection
*Solid Section, elset=_PickedSet9, material=CARBON
,
*End Part
**  
**
** ASSEMBLY
**
*Assembly, name=Assembly
**  
*Instance, name=RVE2DComposite, part=RVE2DComposite
*End Instance
**  
*End Assembly
** 
** MATERIALS
** 
*Material, name=CARBON
*Elastic
240000, 0.3
*Material, name=PEEK
*Elastic
3720, 0.4
